&data_nml
  nc_list_file = './flist.txt',
  data_dir = '/glade/scratch/bjung/saca/interp/data/',   ! path of the GRB nc files
  data_id = 'OR_ABI-L1b-RadF-M3', ! prefix of the downloaded GRB nc files
  sat_id = 'G16',
  n_subsample = 1,
  write_iodav1 = .false.,
/

&main_nml
  f_mpas_latlon = '/glade/p/mmm/parc//liuz/pandac_common/30km/30km_GFSANA/x1.655362.init.2018-04-15_00.00.00.nc', ! MPAS file path/name to read lat & lon information
  f_mpas_out    = './newfile_30km_so_t.nc'   , ! MPAS file for writing the interpolated ABI fields
  l_read_indx   = .ture.,  ! read index and counnt for matching ABI-MPAS pairs
  l_write_indx  = .false.,  ! write index and counnt for matching ABI-MPAS pairs
  l_superob     = .true.,   ! .true.= mesh-based superob, .false.= nearest-neighbor
  l_write_o2m_iodav1 = .true. ! .true.= write superob/neqrest-neighbor into ioda v1 file
/
